starting log: Fri Aug 29 18:41:11 2025
running on: Remi

Version <Wed.Apr.3.114200.2024@cool1>
reading config file ac.conf
reading case file ../data/case14.m
reading case file thru lines
found mpc.version on line 16
found mpc.baseMVA on line 20
 baseMVA: 100.0
found mpc.bus on line 24
 slack bus: 1
 Bus 1 ID 1 is the reference bus
found end of bus section on line 39
 sumloadPd 258.99999999999994 numPload 11
 sumloadQd 73.5
 14 buses
found mpc.gen on line 43
 found end of gen section on line 49
 number of generators: 5 number of buses with gens: 5
 summaxPg: 772.4 summaxQg: 148.0
found mpc.branch on line 53
 found end of branch section on line 74
 branchcount: 20 active 20
  20 unconstrained
found mpc.gencost on line 80
 found end of gencost section on line 86
found mpc.bus_name on line 89
read time: 0.007050991058349609
 creating ampl object ...
 reading modfile ...
 modfile read in time 0.0020389556884765625 AMPL presolve off
 solver set to knitro
 sets and parameters loaded
 saving processed data to all_data
 solving model ...

 ===============================================================
 ===============================================================
 case ../data/case14.m
 modfile ac.mod
 solver knitro
 objective 8081.187606452443
 active power generation 15
 active power demand 2.59
 active power loss 0.09285959586503079
 reactive power generation 15
 reactive power demand 0.7350000000000001
 reactive power loss 0.1471025842105987
 solver runtime 0.9272487163543701
 time so far 2.185753107070923
 writing casename, modfile, obj and runtime to summary_ac.log
 ===============================================================
 ===============================================================
 writing solution to ACsol_case14.txt
 done writing knitro solution to .txt file

 writing solution to ACsol_case14.sol
 done writing AC QCQP allvars solution to .sol file

starting log: Fri Aug 29 18:44:07 2025
running on: Remi

Version <Wed.Apr.3.114200.2024@cool1>
reading config file ac.conf
reading case file ../data/case14.m
reading case file thru lines
found mpc.version on line 16
found mpc.baseMVA on line 20
 baseMVA: 100.0
found mpc.bus on line 24
 slack bus: 1
 Bus 1 ID 1 is the reference bus
found end of bus section on line 39
 sumloadPd 258.99999999999994 numPload 11
 sumloadQd 73.5
 14 buses
found mpc.gen on line 43
 found end of gen section on line 49
 number of generators: 5 number of buses with gens: 5
 summaxPg: 772.4 summaxQg: 148.0
found mpc.branch on line 53
 found end of branch section on line 74
 branchcount: 20 active 20
  20 unconstrained
found mpc.gencost on line 80
 found end of gencost section on line 86
found mpc.bus_name on line 89
read time: 0.003992557525634766
 creating ampl object ...
 reading modfile ...
 modfile read in time 0.0009801387786865234 AMPL presolve off
 solver set to knitro
 sets and parameters loaded
 saving processed data to all_data
 solving model ...

 ===============================================================
 ===============================================================
 case ../data/case14.m
 modfile ac.mod
 solver knitro
 objective 8081.187606452443
 active power generation 15
 active power demand 2.59
 active power loss 0.09285959586503079
 reactive power generation 15
 reactive power demand 0.7350000000000001
 reactive power loss 0.1471025842105987
 solver runtime 0.3415534496307373
 time so far 0.4686875343322754
 writing casename, modfile, obj and runtime to summary_ac.log
 ===============================================================
 ===============================================================
 writing solution to ACsol_case14.txt
 done writing knitro solution to .txt file

 writing solution to ACsol_case14.sol
 done writing AC QCQP allvars solution to .sol file

starting log: Fri Aug 29 18:45:41 2025
running on: Remi

Version <Wed.Apr.3.114200.2024@cool1>
reading config file ac.conf
reading case file ../data/case14.m
reading case file thru lines
found mpc.version on line 16
found mpc.baseMVA on line 20
 baseMVA: 100.0
found mpc.bus on line 24
 slack bus: 1
 Bus 1 ID 1 is the reference bus
found end of bus section on line 39
 sumloadPd 258.99999999999994 numPload 11
 sumloadQd 73.5
 14 buses
found mpc.gen on line 43
 found end of gen section on line 49
 number of generators: 5 number of buses with gens: 5
 summaxPg: 772.4 summaxQg: 148.0
found mpc.branch on line 53
 found end of branch section on line 74
 branchcount: 20 active 20
  20 unconstrained
found mpc.gencost on line 80
 found end of gencost section on line 86
found mpc.bus_name on line 89
read time: 0.004998683929443359
 creating ampl object ...
 reading modfile ...
 modfile read in time 0.0 AMPL presolve off
 solver set to knitro
 sets and parameters loaded
 saving processed data to all_data
 solving model ...

 ===============================================================
 ===============================================================
 case ../data/case14.m
 modfile ac.mod
 solver knitro
 objective 8081.187606452443
 active power generation 15
 active power demand 2.59
 active power loss 0.09285959586503079
 reactive power generation 15
 reactive power demand 0.7350000000000001
 reactive power loss 0.1471025842105987
 solver runtime 0.35234928131103516
 time so far 0.8650646209716797
 writing casename, modfile, obj and runtime to summary_ac.log
 ===============================================================
 ===============================================================
 writing solution to ACsol_case14.txt
 done writing knitro solution to .txt file

 writing solution to ACsol_case14.sol
 done writing AC QCQP allvars solution to .sol file

starting log: Fri Aug 29 18:53:20 2025
running on: Remi

Version <Wed.Apr.3.114200.2024@cool1>
reading config file ac.conf
reading case file ../data/case14.m
reading case file thru lines
found mpc.version on line 16
found mpc.baseMVA on line 20
 baseMVA: 100.0
found mpc.bus on line 24
 slack bus: 1
 Bus 1 ID 1 is the reference bus
found end of bus section on line 39
 sumloadPd 258.99999999999994 numPload 11
 sumloadQd 73.5
 14 buses
found mpc.gen on line 43
 found end of gen section on line 49
 number of generators: 5 number of buses with gens: 5
 summaxPg: 772.4 summaxQg: 148.0
found mpc.branch on line 53
 found end of branch section on line 74
 branchcount: 20 active 20
  20 unconstrained
found mpc.gencost on line 80
 found end of gencost section on line 86
found mpc.bus_name on line 89
read time: 0.005007028579711914
 creating ampl object ...
 reading modfile ...
 modfile read in time 0.0008955001831054688 AMPL presolve off
 solver set to knitro
 sets and parameters loaded
 saving processed data to all_data
 solving model ...

 ===============================================================
 ===============================================================
 case ../data/case14.m
 modfile ac.mod
 solver knitro
 objective 8081.187606452443
 active power generation 15
 active power demand 2.59
 active power loss 0.09285959586503079
 reactive power generation 15
 reactive power demand 0.7350000000000001
 reactive power loss 0.1471025842105987
 solver runtime 0.35082006454467773
 time so far 0.8855023384094238
 writing casename, modfile, obj and runtime to summary_ac.log
 ===============================================================
 ===============================================================
 writing solution to ACsol_case14.txt
 done writing knitro solution to .txt file

 writing solution to ACsol_case14.sol
 done writing AC QCQP allvars solution to .sol file

starting log: Fri Aug 29 18:56:26 2025
running on: Remi

Version <Wed.Apr.3.114200.2024@cool1>
reading config file ac.conf
reading case file ../data/case14.m
reading case file thru lines
found mpc.version on line 16
found mpc.baseMVA on line 20
 baseMVA: 100.0
found mpc.bus on line 24
 slack bus: 1
 Bus 1 ID 1 is the reference bus
found end of bus section on line 39
 sumloadPd 258.99999999999994 numPload 11
 sumloadQd 73.5
 14 buses
found mpc.gen on line 43
 found end of gen section on line 49
 number of generators: 5 number of buses with gens: 5
 summaxPg: 772.4 summaxQg: 148.0
found mpc.branch on line 53
 found end of branch section on line 74
 branchcount: 20 active 20
  20 unconstrained
found mpc.gencost on line 80
 found end of gencost section on line 86
found mpc.bus_name on line 89
read time: 0.004621267318725586
 creating ampl object ...
 reading modfile ...
 modfile read in time 0.0 AMPL presolve off
 solver set to knitro
 sets and parameters loaded
 saving processed data to all_data
 solving model ...

 ===============================================================
 ===============================================================
 case ../data/case14.m
 modfile ac.mod
 solver knitro
 objective 8081.187606452443
 active power generation 15
 active power demand 2.59
 active power loss 0.09285959586503079
 reactive power generation 15
 reactive power demand 0.7350000000000001
 reactive power loss 0.1471025842105987
 solver runtime 0.35290050506591797
 time so far 0.48129773139953613
 writing casename, modfile, obj and runtime to summary_ac.log
 ===============================================================
 ===============================================================
 writing solution to ACsol_case14.txt
 done writing knitro solution to .txt file

 writing solution to ACsol_case14.sol
 done writing AC QCQP allvars solution to .sol file

starting log: Fri Aug 29 18:57:21 2025
running on: Remi

Version <Wed.Apr.3.114200.2024@cool1>
reading config file ac.conf
reading case file ../data/case14.m
reading case file thru lines
found mpc.version on line 16
found mpc.baseMVA on line 20
 baseMVA: 100.0
found mpc.bus on line 24
 slack bus: 1
 Bus 1 ID 1 is the reference bus
found end of bus section on line 39
 sumloadPd 258.99999999999994 numPload 11
 sumloadQd 73.5
 14 buses
found mpc.gen on line 43
 found end of gen section on line 49
 number of generators: 5 number of buses with gens: 5
 summaxPg: 772.4 summaxQg: 148.0
found mpc.branch on line 53
 found end of branch section on line 74
 branchcount: 20 active 20
  20 unconstrained
found mpc.gencost on line 80
 found end of gencost section on line 86
found mpc.bus_name on line 89
read time: 0.003003358840942383
 creating ampl object ...
 reading modfile ...
 modfile read in time 0.0 AMPL presolve off
 solver set to knitro
 sets and parameters loaded
 saving processed data to all_data
 solving model ...

 ===============================================================
 ===============================================================
 case ../data/case14.m
 modfile ac.mod
 solver knitro
 objective 8081.187606452443
 active power generation 15
 active power demand 2.59
 active power loss 0.09285959586503079
 reactive power generation 15
 reactive power demand 0.7350000000000001
 reactive power loss 0.1471025842105987
 solver runtime 0.3529655933380127
 time so far 1.0145447254180908
 writing casename, modfile, obj and runtime to summary_ac.log
 ===============================================================
 ===============================================================
 writing solution to ACsol_case14.txt
 done writing knitro solution to .txt file

 writing solution to ACsol_case14.sol
 done writing AC QCQP allvars solution to .sol file

starting log: Fri Aug 29 18:59:41 2025
running on: Remi

Version <Wed.Apr.3.114200.2024@cool1>
reading config file ac.conf
reading case file ../data/case14.m
reading case file thru lines
found mpc.version on line 16
found mpc.baseMVA on line 20
 baseMVA: 100.0
found mpc.bus on line 24
 slack bus: 1
 Bus 1 ID 1 is the reference bus
found end of bus section on line 39
 sumloadPd 258.99999999999994 numPload 11
 sumloadQd 73.5
 14 buses
found mpc.gen on line 43
 found end of gen section on line 49
 number of generators: 5 number of buses with gens: 5
 summaxPg: 772.4 summaxQg: 148.0
found mpc.branch on line 53
 found end of branch section on line 74
 branchcount: 20 active 20
  20 unconstrained
found mpc.gencost on line 80
 found end of gencost section on line 86
found mpc.bus_name on line 89
read time: 0.004385709762573242
 creating ampl object ...
 reading modfile ...
 modfile read in time 0.0 AMPL presolve off
 solver set to knitro
 sets and parameters loaded
 saving processed data to all_data
 solving model ...

 ===============================================================
 ===============================================================
 case ../data/case14.m
 modfile ac.mod
 solver knitro
 objective 8081.187606452443
 active power generation 15
 active power demand 2.59
 active power loss 0.09285959586503079
 reactive power generation 15
 reactive power demand 0.7350000000000001
 reactive power loss 0.1471025842105987
 solver runtime 0.3462707996368408
 time so far 0.4738197326660156
 writing casename, modfile, obj and runtime to summary_ac.log
 ===============================================================
 ===============================================================
 writing solution to ACsol_case14.txt
 done writing knitro solution to .txt file

 writing solution to ACsol_case14.sol
 done writing AC QCQP allvars solution to .sol file

 getting soluion for plotting ...
starting log: Fri Aug 29 19:02:46 2025
running on: Remi

Version <Wed.Apr.3.114200.2024@cool1>
reading config file ac.conf
reading case file ../data/case14.m
reading case file thru lines
found mpc.version on line 16
found mpc.baseMVA on line 20
 baseMVA: 100.0
found mpc.bus on line 24
 slack bus: 1
 Bus 1 ID 1 is the reference bus
found end of bus section on line 39
 sumloadPd 258.99999999999994 numPload 11
 sumloadQd 73.5
 14 buses
found mpc.gen on line 43
 found end of gen section on line 49
 number of generators: 5 number of buses with gens: 5
 summaxPg: 772.4 summaxQg: 148.0
found mpc.branch on line 53
 found end of branch section on line 74
 branchcount: 20 active 20
  20 unconstrained
found mpc.gencost on line 80
 found end of gencost section on line 86
found mpc.bus_name on line 89
read time: 0.004893779754638672
 creating ampl object ...
 reading modfile ...
 modfile read in time 0.0 AMPL presolve off
 solver set to knitro
 sets and parameters loaded
 saving processed data to all_data
 solving model ...

 ===============================================================
 ===============================================================
 case ../data/case14.m
 modfile ac.mod
 solver knitro
 objective 8081.187606452443
 active power generation 15
 active power demand 2.59
 active power loss 0.09285959586503079
 reactive power generation 15
 reactive power demand 0.7350000000000001
 reactive power loss 0.1471025842105987
 solver runtime 0.3576164245605469
 time so far 0.9284319877624512
 writing casename, modfile, obj and runtime to summary_ac.log
 ===============================================================
 ===============================================================
 writing solution to ACsol_case14.txt
 done writing knitro solution to .txt file

 writing solution to ACsol_case14.sol
 done writing AC QCQP allvars solution to .sol file

 getting soluion for plotting ...
starting log: Fri Aug 29 19:05:13 2025
running on: Remi

Version <Wed.Apr.3.114200.2024@cool1>
reading config file ac.conf
reading case file ../data/case14.m
reading case file thru lines
found mpc.version on line 16
found mpc.baseMVA on line 20
 baseMVA: 100.0
found mpc.bus on line 24
 slack bus: 1
 Bus 1 ID 1 is the reference bus
found end of bus section on line 39
 sumloadPd 258.99999999999994 numPload 11
 sumloadQd 73.5
 14 buses
found mpc.gen on line 43
 found end of gen section on line 49
 number of generators: 5 number of buses with gens: 5
 summaxPg: 772.4 summaxQg: 148.0
found mpc.branch on line 53
 found end of branch section on line 74
 branchcount: 20 active 20
  20 unconstrained
found mpc.gencost on line 80
 found end of gencost section on line 86
found mpc.bus_name on line 89
read time: 0.004006624221801758
 creating ampl object ...
 reading modfile ...
 modfile read in time 0.0015075206756591797 AMPL presolve off
 solver set to knitro
 sets and parameters loaded
 saving processed data to all_data
 solving model ...

 ===============================================================
 ===============================================================
 case ../data/case14.m
 modfile ac.mod
 solver knitro
 objective 8081.187606452443
 active power generation 15
 active power demand 2.59
 active power loss 0.09285959586503079
 reactive power generation 15
 reactive power demand 0.7350000000000001
 reactive power loss 0.1471025842105987
 solver runtime 0.3370215892791748
 time so far 0.4616720676422119
 writing casename, modfile, obj and runtime to summary_ac.log
 ===============================================================
 ===============================================================
 writing solution to ACsol_case14.txt
 done writing knitro solution to .txt file

 writing solution to ACsol_case14.sol
 done writing AC QCQP allvars solution to .sol file

 getting soluion for plotting ...
starting log: Fri Aug 29 19:07:03 2025
running on: Remi

Version <Wed.Apr.3.114200.2024@cool1>
reading config file ac.conf
reading case file ../data/case14.m
reading case file thru lines
found mpc.version on line 16
found mpc.baseMVA on line 20
 baseMVA: 100.0
found mpc.bus on line 24
 slack bus: 1
 Bus 1 ID 1 is the reference bus
found end of bus section on line 39
 sumloadPd 258.99999999999994 numPload 11
 sumloadQd 73.5
 14 buses
found mpc.gen on line 43
 found end of gen section on line 49
 number of generators: 5 number of buses with gens: 5
 summaxPg: 772.4 summaxQg: 148.0
found mpc.branch on line 53
 found end of branch section on line 74
 branchcount: 20 active 20
  20 unconstrained
found mpc.gencost on line 80
 found end of gencost section on line 86
found mpc.bus_name on line 89
read time: 0.003956794738769531
 creating ampl object ...
 reading modfile ...
 modfile read in time 0.0005092620849609375 AMPL presolve off
 solver set to knitro
 sets and parameters loaded
 saving processed data to all_data
 solving model ...

 ===============================================================
 ===============================================================
 case ../data/case14.m
 modfile ac.mod
 solver knitro
 objective 8081.187606452443
 active power generation 15
 active power demand 2.59
 active power loss 0.09285959586503079
 reactive power generation 15
 reactive power demand 0.7350000000000001
 reactive power loss 0.1471025842105987
 solver runtime 0.39519238471984863
 time so far 0.9291424751281738
 writing casename, modfile, obj and runtime to summary_ac.log
 ===============================================================
 ===============================================================
 writing solution to ACsol_case14.txt
 done writing knitro solution to .txt file

 writing solution to ACsol_case14.sol
 done writing AC QCQP allvars solution to .sol file

 getting soluion for plotting ...
starting log: Fri Aug 29 19:08:26 2025
running on: Remi

Version <Wed.Apr.3.114200.2024@cool1>
reading config file ac.conf
reading case file ../data/case14.m
reading case file thru lines
found mpc.version on line 16
found mpc.baseMVA on line 20
 baseMVA: 100.0
found mpc.bus on line 24
 slack bus: 1
 Bus 1 ID 1 is the reference bus
found end of bus section on line 39
 sumloadPd 258.99999999999994 numPload 11
 sumloadQd 73.5
 14 buses
found mpc.gen on line 43
 found end of gen section on line 49
 number of generators: 5 number of buses with gens: 5
 summaxPg: 772.4 summaxQg: 148.0
found mpc.branch on line 53
 found end of branch section on line 74
 branchcount: 20 active 20
  20 unconstrained
found mpc.gencost on line 80
 found end of gencost section on line 86
found mpc.bus_name on line 89
read time: 0.004041433334350586
 creating ampl object ...
 reading modfile ...
 modfile read in time 0.0010466575622558594 AMPL presolve off
 solver set to knitro
 sets and parameters loaded
 saving processed data to all_data
 solving model ...

 ===============================================================
 ===============================================================
 case ../data/case14.m
 modfile ac.mod
 solver knitro
 objective 8081.187606452443
 active power generation 15
 active power demand 2.59
 active power loss 0.09285959586503079
 reactive power generation 15
 reactive power demand 0.7350000000000001
 reactive power loss 0.1471025842105987
 solver runtime 0.34315967559814453
 time so far 0.4680948257446289
 writing casename, modfile, obj and runtime to summary_ac.log
 ===============================================================
 ===============================================================
 writing solution to ACsol_case14.txt
 done writing knitro solution to .txt file

 writing solution to ACsol_case14.sol
 done writing AC QCQP allvars solution to .sol file

 getting soluion for plotting ...
starting log: Fri Aug 29 19:10:47 2025
running on: Remi

Version <Wed.Apr.3.114200.2024@cool1>
reading config file ac.conf
reading case file ../data/case14.m
reading case file thru lines
found mpc.version on line 16
found mpc.baseMVA on line 20
 baseMVA: 100.0
found mpc.bus on line 24
 slack bus: 1
 Bus 1 ID 1 is the reference bus
found end of bus section on line 39
 sumloadPd 258.99999999999994 numPload 11
 sumloadQd 73.5
 14 buses
found mpc.gen on line 43
 found end of gen section on line 49
 number of generators: 5 number of buses with gens: 5
 summaxPg: 772.4 summaxQg: 148.0
found mpc.branch on line 53
 found end of branch section on line 74
 branchcount: 20 active 20
  20 unconstrained
found mpc.gencost on line 80
 found end of gencost section on line 86
found mpc.bus_name on line 89
read time: 0.004992485046386719
 creating ampl object ...
 reading modfile ...
 modfile read in time 0.0 AMPL presolve off
 solver set to knitro
 sets and parameters loaded
 saving processed data to all_data
 solving model ...

 ===============================================================
 ===============================================================
 case ../data/case14.m
 modfile ac.mod
 solver knitro
 objective 8081.187606452443
 active power generation 15
 active power demand 2.59
 active power loss 0.09285959586503079
 reactive power generation 15
 reactive power demand 0.7350000000000001
 reactive power loss 0.1471025842105987
 solver runtime 0.3562171459197998
 time so far 0.48029279708862305
 writing casename, modfile, obj and runtime to summary_ac.log
 ===============================================================
 ===============================================================
 writing solution to ACsol_case14.txt
 done writing knitro solution to .txt file

 writing solution to ACsol_case14.sol
 done writing AC QCQP allvars solution to .sol file

 getting soluion for plotting ...
starting log: Fri Aug 29 19:15:20 2025
running on: Remi

Version <Wed.Apr.3.114200.2024@cool1>
reading config file ac.conf
reading case file ../data/case14.m
reading case file thru lines
found mpc.version on line 16
found mpc.baseMVA on line 20
 baseMVA: 100.0
found mpc.bus on line 24
 slack bus: 1
 Bus 1 ID 1 is the reference bus
found end of bus section on line 39
 sumloadPd 258.99999999999994 numPload 11
 sumloadQd 73.5
 14 buses
found mpc.gen on line 43
 found end of gen section on line 49
 number of generators: 5 number of buses with gens: 5
 summaxPg: 772.4 summaxQg: 148.0
found mpc.branch on line 53
 found end of branch section on line 74
 branchcount: 20 active 20
  20 unconstrained
found mpc.gencost on line 80
 found end of gencost section on line 86
found mpc.bus_name on line 89
read time: 0.004995107650756836
 creating ampl object ...
 reading modfile ...
 modfile read in time 0.0 AMPL presolve off
 solver set to knitro
 sets and parameters loaded
 saving processed data to all_data
 solving model ...

 ===============================================================
 ===============================================================
 case ../data/case14.m
 modfile ac.mod
 solver knitro
 objective 8081.187606452443
 active power generation 15
 active power demand 2.59
 active power loss 0.09285959586503079
 reactive power generation 15
 reactive power demand 0.7350000000000001
 reactive power loss 0.1471025842105987
 solver runtime 0.3562178611755371
 time so far 0.9511547088623047
 writing casename, modfile, obj and runtime to summary_ac.log
 ===============================================================
 ===============================================================
 writing solution to ACsol_case14.txt
 done writing knitro solution to .txt file

 writing solution to ACsol_case14.sol
 done writing AC QCQP allvars solution to .sol file

 getting soluion for plotting ...
starting log: Fri Aug 29 19:15:58 2025
running on: Remi

Version <Wed.Apr.3.114200.2024@cool1>
reading config file ac.conf
reading case file ../data/case14.m
reading case file thru lines
found mpc.version on line 16
found mpc.baseMVA on line 20
 baseMVA: 100.0
found mpc.bus on line 24
 slack bus: 1
 Bus 1 ID 1 is the reference bus
found end of bus section on line 39
 sumloadPd 258.99999999999994 numPload 11
 sumloadQd 73.5
 14 buses
found mpc.gen on line 43
 found end of gen section on line 49
 number of generators: 5 number of buses with gens: 5
 summaxPg: 772.4 summaxQg: 148.0
found mpc.branch on line 53
 found end of branch section on line 74
 branchcount: 20 active 20
  20 unconstrained
found mpc.gencost on line 80
 found end of gencost section on line 86
found mpc.bus_name on line 89
read time: 0.0042591094970703125
 creating ampl object ...
 reading modfile ...
 modfile read in time 0.0 AMPL presolve off
 solver set to knitro
 sets and parameters loaded
 saving processed data to all_data
 solving model ...

 ===============================================================
 ===============================================================
 case ../data/case14.m
 modfile ac.mod
 solver knitro
 objective 8081.187606452443
 active power generation 15
 active power demand 2.59
 active power loss 0.09285959586503079
 reactive power generation 15
 reactive power demand 0.7350000000000001
 reactive power loss 0.1471025842105987
 solver runtime 0.3345053195953369
 time so far 0.4589529037475586
 writing casename, modfile, obj and runtime to summary_ac.log
 ===============================================================
 ===============================================================
 writing solution to ACsol_case14.txt
 done writing knitro solution to .txt file

 writing solution to ACsol_case14.sol
 done writing AC QCQP allvars solution to .sol file

 getting soluion for plotting ...
starting log: Fri Aug 29 19:19:40 2025
running on: Remi

Version <Wed.Apr.3.114200.2024@cool1>
reading config file ac.conf
reading case file ../data/case14.m
reading case file thru lines
found mpc.version on line 16
found mpc.baseMVA on line 20
 baseMVA: 100.0
found mpc.bus on line 24
 slack bus: 1
 Bus 1 ID 1 is the reference bus
found end of bus section on line 39
 sumloadPd 258.99999999999994 numPload 11
 sumloadQd 73.5
 14 buses
found mpc.gen on line 43
 found end of gen section on line 49
 number of generators: 5 number of buses with gens: 5
 summaxPg: 772.4 summaxQg: 148.0
found mpc.branch on line 53
 found end of branch section on line 74
 branchcount: 20 active 20
  20 unconstrained
found mpc.gencost on line 80
 found end of gencost section on line 86
found mpc.bus_name on line 89
read time: 0.004056215286254883
 creating ampl object ...
 reading modfile ...
 modfile read in time 0.0 AMPL presolve off
 solver set to knitro
 sets and parameters loaded
 saving processed data to all_data
 solving model ...

 ===============================================================
 ===============================================================
 case ../data/case14.m
 modfile ac.mod
 solver knitro
 objective 8081.187606452443
 active power generation 15
 active power demand 2.59
 active power loss 0.09285959586503079
 reactive power generation 15
 reactive power demand 0.7350000000000001
 reactive power loss 0.1471025842105987
 solver runtime 0.3540668487548828
 time so far 0.8914737701416016
 writing casename, modfile, obj and runtime to summary_ac.log
 ===============================================================
 ===============================================================
 writing solution to ACsol_case14.txt
 done writing knitro solution to .txt file

 writing solution to ACsol_case14.sol
 done writing AC QCQP allvars solution to .sol file

 getting soluion for plotting ...
starting log: Fri Aug 29 19:27:42 2025
running on: Remi

Version <Wed.Apr.3.114200.2024@cool1>
reading config file ac.conf
reading case file ../data/case14.m
reading case file thru lines
found mpc.version on line 16
found mpc.baseMVA on line 20
 baseMVA: 100.0
found mpc.bus on line 24
 slack bus: 1
 Bus 1 ID 1 is the reference bus
found end of bus section on line 39
 sumloadPd 258.99999999999994 numPload 11
 sumloadQd 73.5
 14 buses
found mpc.gen on line 43
 found end of gen section on line 49
 number of generators: 5 number of buses with gens: 5
 summaxPg: 772.4 summaxQg: 148.0
found mpc.branch on line 53
 found end of branch section on line 74
 branchcount: 20 active 20
  20 unconstrained
found mpc.gencost on line 80
 found end of gencost section on line 86
found mpc.bus_name on line 89
read time: 0.005594968795776367
 creating ampl object ...
 reading modfile ...
 modfile read in time 0.0015077590942382812 AMPL presolve off
 solver set to knitro
 sets and parameters loaded
 saving processed data to all_data
 solving model ...

 ===============================================================
 ===============================================================
 case ../data/case14.m
 modfile ac.mod
 solver knitro
 objective 8081.187606452443
 active power generation 15
 active power demand 2.59
 active power loss 0.09285959586503079
 reactive power generation 15
 reactive power demand 0.7350000000000001
 reactive power loss 0.1471025842105987
 solver runtime 0.37190914154052734
 time so far 0.9552421569824219
 writing casename, modfile, obj and runtime to summary_ac.log
 ===============================================================
 ===============================================================
 writing solution to ACsol_case14.txt
 done writing knitro solution to .txt file

 writing solution to ACsol_case14.sol
 done writing AC QCQP allvars solution to .sol file

 getting soluion for plotting ...
starting log: Fri Aug 29 19:29:06 2025
running on: Remi

Version <Wed.Apr.3.114200.2024@cool1>
reading config file ac.conf
reading case file ../data/case14.m
reading case file thru lines
found mpc.version on line 16
found mpc.baseMVA on line 20
 baseMVA: 100.0
found mpc.bus on line 24
 slack bus: 1
 Bus 1 ID 1 is the reference bus
found end of bus section on line 39
 sumloadPd 258.99999999999994 numPload 11
 sumloadQd 73.5
 14 buses
found mpc.gen on line 43
 found end of gen section on line 49
 number of generators: 5 number of buses with gens: 5
 summaxPg: 772.4 summaxQg: 148.0
found mpc.branch on line 53
 found end of branch section on line 74
 branchcount: 20 active 20
  20 unconstrained
found mpc.gencost on line 80
 found end of gencost section on line 86
found mpc.bus_name on line 89
read time: 0.005877017974853516
 creating ampl object ...
 reading modfile ...
 modfile read in time 0.0 AMPL presolve off
 solver set to knitro
 sets and parameters loaded
 saving processed data to all_data
 solving model ...

 ===============================================================
 ===============================================================
 case ../data/case14.m
 modfile ac.mod
 solver knitro
 objective 8081.187606452443
 active power generation 15
 active power demand 2.59
 active power loss 0.09285959586503079
 reactive power generation 15
 reactive power demand 0.7350000000000001
 reactive power loss 0.1471025842105987
 solver runtime 0.3597862720489502
 time so far 0.4954667091369629
 writing casename, modfile, obj and runtime to summary_ac.log
 ===============================================================
 ===============================================================
 writing solution to ACsol_case14.txt
 done writing knitro solution to .txt file

 writing solution to ACsol_case14.sol
 done writing AC QCQP allvars solution to .sol file

 getting soluion for plotting ...
starting log: Fri Aug 29 20:02:14 2025
running on: Remi

Version <Wed.Apr.3.114200.2024@cool1>
reading config file ac.conf
reading case file ../data/case14.m
reading case file thru lines
found mpc.version on line 16
found mpc.baseMVA on line 20
 baseMVA: 100.0
found mpc.bus on line 24
 slack bus: 1
 Bus 1 ID 1 is the reference bus
found end of bus section on line 39
 sumloadPd 258.99999999999994 numPload 11
 sumloadQd 73.5
 14 buses
found mpc.gen on line 43
 found end of gen section on line 49
 number of generators: 5 number of buses with gens: 5
 summaxPg: 772.4 summaxQg: 148.0
found mpc.branch on line 53
 found end of branch section on line 74
 branchcount: 20 active 20
  20 unconstrained
found mpc.gencost on line 80
 found end of gencost section on line 86
found mpc.bus_name on line 89
read time: 0.005152702331542969
 creating ampl object ...
 reading modfile ...
 modfile read in time 0.002007007598876953 AMPL presolve off
 solver set to knitro
 sets and parameters loaded
 saving processed data to all_data
 solving model ...

 ===============================================================
 ===============================================================
 case ../data/case14.m
 modfile ac.mod
 solver knitro
 objective 8081.187606452443
 active power generation 15
 active power demand 2.59
 active power loss 0.09285959586503079
 reactive power generation 15
 reactive power demand 0.7350000000000001
 reactive power loss 0.1471025842105987
 solver runtime 0.9790492057800293
 time so far 2.272263288497925
 writing casename, modfile, obj and runtime to summary_ac.log
 ===============================================================
 ===============================================================
 writing solution to ACsol_case14.txt
 done writing knitro solution to .txt file

 writing solution to ACsol_case14.sol
 done writing AC QCQP allvars solution to .sol file

 building solution dictionary for plotting...
starting log: Fri Aug 29 20:06:39 2025
running on: Remi

Version <Wed.Apr.3.114200.2024@cool1>
reading config file ac.conf
reading case file ../data/case14.m
reading case file thru lines
found mpc.version on line 16
found mpc.baseMVA on line 20
 baseMVA: 100.0
found mpc.bus on line 24
 slack bus: 1
 Bus 1 ID 1 is the reference bus
found end of bus section on line 39
 sumloadPd 258.99999999999994 numPload 11
 sumloadQd 73.5
 14 buses
found mpc.gen on line 43
 found end of gen section on line 49
 number of generators: 5 number of buses with gens: 5
 summaxPg: 772.4 summaxQg: 148.0
found mpc.branch on line 53
 found end of branch section on line 74
 branchcount: 20 active 20
  20 unconstrained
found mpc.gencost on line 80
 found end of gencost section on line 86
found mpc.bus_name on line 89
read time: 0.004514455795288086
 creating ampl object ...
 reading modfile ...
 modfile read in time 0.0005903244018554688 AMPL presolve off
 solver set to knitro
 sets and parameters loaded
 saving processed data to all_data
 solving model ...

 ===============================================================
 ===============================================================
 case ../data/case14.m
 modfile ac.mod
 solver knitro
 objective 8081.187606452443
 active power generation 15
 active power demand 2.59
 active power loss 0.09285959586503079
 reactive power generation 15
 reactive power demand 0.7350000000000001
 reactive power loss 0.1471025842105987
 solver runtime 0.3964414596557617
 time so far 0.9751391410827637
 writing casename, modfile, obj and runtime to summary_ac.log
 ===============================================================
 ===============================================================
 writing solution to ACsol_case14.txt
 done writing knitro solution to .txt file

 writing solution to ACsol_case14.sol
 done writing AC QCQP allvars solution to .sol file

 building solution dictionary for plotting...
starting log: Fri Aug 29 20:07:58 2025
running on: Remi

Version <Wed.Apr.3.114200.2024@cool1>
reading config file ac.conf
reading case file ../data/case14.m
reading case file thru lines
found mpc.version on line 16
found mpc.baseMVA on line 20
 baseMVA: 100.0
found mpc.bus on line 24
 slack bus: 1
 Bus 1 ID 1 is the reference bus
found end of bus section on line 39
 sumloadPd 258.99999999999994 numPload 11
 sumloadQd 73.5
 14 buses
found mpc.gen on line 43
 found end of gen section on line 49
 number of generators: 5 number of buses with gens: 5
 summaxPg: 772.4 summaxQg: 148.0
found mpc.branch on line 53
 found end of branch section on line 74
 branchcount: 20 active 20
  20 unconstrained
found mpc.gencost on line 80
 found end of gencost section on line 86
found mpc.bus_name on line 89
read time: 0.003885507583618164
 creating ampl object ...
 reading modfile ...
 modfile read in time 0.001123189926147461 AMPL presolve off
 solver set to knitro
 sets and parameters loaded
 saving processed data to all_data
 solving model ...

 ===============================================================
 ===============================================================
 case ../data/case14.m
 modfile ac.mod
 solver knitro
 objective 8081.187606452443
 active power generation 15
 active power demand 2.59
 active power loss 0.09285959586503079
 reactive power generation 15
 reactive power demand 0.7350000000000001
 reactive power loss 0.1471025842105987
 solver runtime 0.35939979553222656
 time so far 0.5421419143676758
 writing casename, modfile, obj and runtime to summary_ac.log
 ===============================================================
 ===============================================================
 writing solution to ACsol_case14.txt
 done writing knitro solution to .txt file

 writing solution to ACsol_case14.sol
 done writing AC QCQP allvars solution to .sol file

 building solution dictionary for plotting...
starting log: Fri Aug 29 20:08:38 2025
running on: Remi

Version <Wed.Apr.3.114200.2024@cool1>
reading config file ac.conf
reading case file ../data/case14.m
reading case file thru lines
found mpc.version on line 16
found mpc.baseMVA on line 20
 baseMVA: 100.0
found mpc.bus on line 24
 slack bus: 1
 Bus 1 ID 1 is the reference bus
found end of bus section on line 39
 sumloadPd 258.99999999999994 numPload 11
 sumloadQd 73.5
 14 buses
found mpc.gen on line 43
 found end of gen section on line 49
 number of generators: 5 number of buses with gens: 5
 summaxPg: 772.4 summaxQg: 148.0
found mpc.branch on line 53
 found end of branch section on line 74
 branchcount: 20 active 20
  20 unconstrained
found mpc.gencost on line 80
 found end of gencost section on line 86
found mpc.bus_name on line 89
read time: 0.003749847412109375
 creating ampl object ...
 reading modfile ...
 modfile read in time 0.0015218257904052734 AMPL presolve off
 solver set to knitro
 sets and parameters loaded
 saving processed data to all_data
 solving model ...

 ===============================================================
 ===============================================================
 case ../data/case14.m
 modfile ac.mod
 solver knitro
 objective 8081.187606452443
 active power generation 15
 active power demand 2.59
 active power loss 0.09285959586503079
 reactive power generation 15
 reactive power demand 0.7350000000000001
 reactive power loss 0.1471025842105987
 solver runtime 0.3749382495880127
 time so far 0.5096044540405273
 writing casename, modfile, obj and runtime to summary_ac.log
 ===============================================================
 ===============================================================
 writing solution to ACsol_case14.txt
 done writing knitro solution to .txt file

 writing solution to ACsol_case14.sol
 done writing AC QCQP allvars solution to .sol file

 building solution dictionary for plotting...
starting log: Fri Aug 29 20:09:43 2025
running on: Remi

Version <Wed.Apr.3.114200.2024@cool1>
reading config file ac.conf
reading case file ../data/case14.m
reading case file thru lines
found mpc.version on line 16
found mpc.baseMVA on line 20
 baseMVA: 100.0
found mpc.bus on line 24
 slack bus: 1
 Bus 1 ID 1 is the reference bus
found end of bus section on line 39
 sumloadPd 258.99999999999994 numPload 11
 sumloadQd 73.5
 14 buses
found mpc.gen on line 43
 found end of gen section on line 49
 number of generators: 5 number of buses with gens: 5
 summaxPg: 772.4 summaxQg: 148.0
found mpc.branch on line 53
 found end of branch section on line 74
 branchcount: 20 active 20
  20 unconstrained
found mpc.gencost on line 80
 found end of gencost section on line 86
found mpc.bus_name on line 89
read time: 0.0037043094635009766
 creating ampl object ...
 reading modfile ...
 modfile read in time 0.0010097026824951172 AMPL presolve off
 solver set to knitro
 sets and parameters loaded
 saving processed data to all_data
 solving model ...

 ===============================================================
 ===============================================================
 case ../data/case14.m
 modfile ac.mod
 solver knitro
 objective 8081.187606452443
 active power generation 15
 active power demand 2.59
 active power loss 0.09285959586503079
 reactive power generation 15
 reactive power demand 0.7350000000000001
 reactive power loss 0.1471025842105987
 solver runtime 0.4696080684661865
 time so far 0.6047718524932861
 writing casename, modfile, obj and runtime to summary_ac.log
 ===============================================================
 ===============================================================
 writing solution to ACsol_case14.txt
 done writing knitro solution to .txt file

 writing solution to ACsol_case14.sol
 done writing AC QCQP allvars solution to .sol file

 building solution dictionary for plotting...
all_data building solution dictionary for plotting...
starting log: Fri Aug 29 20:10:46 2025
running on: Remi

Version <Wed.Apr.3.114200.2024@cool1>
reading config file ac.conf
reading case file ../data/case14.m
reading case file thru lines
found mpc.version on line 16
found mpc.baseMVA on line 20
 baseMVA: 100.0
found mpc.bus on line 24
 slack bus: 1
 Bus 1 ID 1 is the reference bus
found end of bus section on line 39
 sumloadPd 258.99999999999994 numPload 11
 sumloadQd 73.5
 14 buses
found mpc.gen on line 43
 found end of gen section on line 49
 number of generators: 5 number of buses with gens: 5
 summaxPg: 772.4 summaxQg: 148.0
found mpc.branch on line 53
 found end of branch section on line 74
 branchcount: 20 active 20
  20 unconstrained
found mpc.gencost on line 80
 found end of gencost section on line 86
found mpc.bus_name on line 89
read time: 0.0045239925384521484
 creating ampl object ...
 reading modfile ...
 modfile read in time 0.0 AMPL presolve off
 solver set to knitro
 sets and parameters loaded
 saving processed data to all_data
 solving model ...

 ===============================================================
 ===============================================================
 case ../data/case14.m
 modfile ac.mod
 solver knitro
 objective 8081.187606452443
 active power generation 15
 active power demand 2.59
 active power loss 0.09285959586503079
 reactive power generation 15
 reactive power demand 0.7350000000000001
 reactive power loss 0.1471025842105987
 solver runtime 0.3855767250061035
 time so far 0.9232280254364014
 writing casename, modfile, obj and runtime to summary_ac.log
 ===============================================================
 ===============================================================
 writing solution to ACsol_case14.txt
 done writing knitro solution to .txt file

 writing solution to ACsol_case14.sol
 done writing AC QCQP allvars solution to .sol file

 building solution dictionary for plotting...
all_data building solution dictionary for plotting...

closing log: Fri Aug 29 20:10:48 2025
starting log: Fri Aug 29 20:12:43 2025
running on: Remi

Version <Wed.Apr.3.114200.2024@cool1>
reading config file ac.conf
reading case file ../data/case14.m
reading case file thru lines
found mpc.version on line 16
found mpc.baseMVA on line 20
 baseMVA: 100.0
found mpc.bus on line 24
 slack bus: 1
 Bus 1 ID 1 is the reference bus
found end of bus section on line 39
 sumloadPd 258.99999999999994 numPload 11
 sumloadQd 73.5
 14 buses
found mpc.gen on line 43
 found end of gen section on line 49
 number of generators: 5 number of buses with gens: 5
 summaxPg: 772.4 summaxQg: 148.0
found mpc.branch on line 53
 found end of branch section on line 74
 branchcount: 20 active 20
  20 unconstrained
found mpc.gencost on line 80
 found end of gencost section on line 86
found mpc.bus_name on line 89
read time: 0.004860877990722656
 creating ampl object ...
 reading modfile ...
 modfile read in time 0.001554250717163086 AMPL presolve off
 solver set to knitro
 sets and parameters loaded
 saving processed data to all_data
 solving model ...

 ===============================================================
 ===============================================================
 case ../data/case14.m
 modfile ac.mod
 solver knitro
 objective 8081.187606452443
 active power generation 15
 active power demand 2.59
 active power loss 0.09285959586503079
 reactive power generation 15
 reactive power demand 0.7350000000000001
 reactive power loss 0.1471025842105987
 solver runtime 0.3875925540924072
 time so far 0.5269339084625244
 writing casename, modfile, obj and runtime to summary_ac.log
 ===============================================================
 ===============================================================
 writing solution to ACsol_case14.txt
 done writing knitro solution to .txt file

 writing solution to ACsol_case14.sol
 done writing AC QCQP allvars solution to .sol file

 building solution dictionary for plotting...
 building solution dictionary for plotting...

closing log: Fri Aug 29 20:13:26 2025
starting log: Fri Aug 29 20:14:18 2025
running on: Remi

Version <Wed.Apr.3.114200.2024@cool1>
reading config file ac.conf
reading case file ../data/case13659pegase.m
reading case file thru lines
found mpc.version on line 66
found mpc.baseMVA on line 70
 baseMVA: 100.0
found mpc.bus on line 74
 slack bus: 1
 Bus 1 ID 1 is the reference bus
found end of bus section on line 13734
 sumloadPd 381431.85000000027 numPload 5043
 sumloadQd 98523.40000000056
 13659 buses
found mpc.gen on line 13738
 found end of gen section on line 17831
 number of generators: 4092 number of buses with gens: 4092
 summaxPg: 981300.0 summaxQg: 995580.0
found mpc.branch on line 17835
 found end of branch section on line 38303
 branchcount: 20467 active 20467
  20467 unconstrained
found mpc.gencost on line 38309
 found end of gencost section on line 42402
read time: 0.3484036922454834
 creating ampl object ...
 reading modfile ...
 modfile read in time 0.0 AMPL presolve off
 solver set to knitro
 sets and parameters loaded
 saving processed data to all_data
 solving model ...
starting log: Fri Aug 29 20:21:50 2025
running on: Remi

Version <Wed.Apr.3.114200.2024@cool1>
reading config file ac.conf
reading case file ../data/case1354pegase.m
reading case file thru lines
found mpc.version on line 64
found mpc.baseMVA on line 68
 baseMVA: 100.0
found mpc.bus on line 72
 slack bus: 4231
 Bus 640 ID 4231 is the reference bus
found end of bus section on line 1427
 sumloadPd 73059.67000000003 numPload 621
 sumloadQd 13401.439999999995
 1354 buses
found mpc.gen on line 1431
 found end of gen section on line 1692
 number of generators: 260 number of buses with gens: 260
 summaxPg: 128738.6 summaxQg: inf
found mpc.branch on line 1696
 found end of branch section on line 3688
 branchcount: 1991 active 1991
  559 unconstrained
found mpc.gencost on line 3694
 found end of gencost section on line 3955
read time: 0.054929494857788086
 creating ampl object ...
 reading modfile ...
 modfile read in time 0.0 AMPL presolve off
 solver set to knitro
 sets and parameters loaded
 saving processed data to all_data
 solving model ...

 ===============================================================
 ===============================================================
 case ../data/case1354pegase.m
 modfile ac.mod
 solver knitro
 objective 74069.36341388008
 active power generation 33930
 active power demand 730.5967000000006
 active power loss 10.096934138800489
 reactive power generation 33930
 reactive power demand 134.01440000000014
 reactive power loss 130.93570279048956
 solver runtime 2.280656099319458
 time so far 3.858520746231079
 writing casename, modfile, obj and runtime to summary_ac.log
 ===============================================================
 ===============================================================
 writing solution to ACsol_case1354pegase.txt
 done writing knitro solution to .txt file

 writing solution to ACsol_case1354pegase.sol
 done writing AC QCQP allvars solution to .sol file

 building solution dictionary for plotting...
starting log: Fri Aug 29 20:32:33 2025
running on: Remi

Version <Wed.Apr.3.114200.2024@cool1>
reading config file ac.conf
reading case file ../data/case1354pegase.m
reading case file thru lines
found mpc.version on line 64
found mpc.baseMVA on line 68
 baseMVA: 100.0
found mpc.bus on line 72
 slack bus: 4231
 Bus 640 ID 4231 is the reference bus
found end of bus section on line 1427
 sumloadPd 73059.67000000003 numPload 621
 sumloadQd 13401.439999999995
 1354 buses
found mpc.gen on line 1431
 found end of gen section on line 1692
 number of generators: 260 number of buses with gens: 260
 summaxPg: 128738.6 summaxQg: inf
found mpc.branch on line 1696
 found end of branch section on line 3688
 branchcount: 1991 active 1991
  559 unconstrained
found mpc.gencost on line 3694
 found end of gencost section on line 3955
read time: 0.04209494590759277
 creating ampl object ...
 reading modfile ...
 modfile read in time 0.0 AMPL presolve off
 solver set to knitro
 sets and parameters loaded
 saving processed data to all_data
 solving model ...

 ===============================================================
 ===============================================================
 case ../data/case1354pegase.m
 modfile ac.mod
 solver knitro
 objective 74069.36341388008
 active power generation 33930
 active power demand 730.5967000000006
 active power loss 10.096934138800489
 reactive power generation 33930
 reactive power demand 134.01440000000014
 reactive power loss 130.93570279048956
 solver runtime 2.202147960662842
 time so far 3.720534086227417
 writing casename, modfile, obj and runtime to summary_ac.log
 ===============================================================
 ===============================================================
 writing solution to ACsol_case1354pegase.txt
 done writing knitro solution to .txt file

 writing solution to ACsol_case1354pegase.sol
 done writing AC QCQP allvars solution to .sol file

 building solution dictionary for plotting...
starting log: Fri Aug 29 20:34:26 2025
running on: Remi

Version <Wed.Apr.3.114200.2024@cool1>
reading config file ac.conf
reading case file ../data/case1354pegase.m
reading case file thru lines
found mpc.version on line 64
found mpc.baseMVA on line 68
 baseMVA: 100.0
found mpc.bus on line 72
 slack bus: 4231
 Bus 640 ID 4231 is the reference bus
found end of bus section on line 1427
 sumloadPd 73059.67000000003 numPload 621
 sumloadQd 13401.439999999995
 1354 buses
found mpc.gen on line 1431
 found end of gen section on line 1692
 number of generators: 260 number of buses with gens: 260
 summaxPg: 128738.6 summaxQg: inf
found mpc.branch on line 1696
 found end of branch section on line 3688
 branchcount: 1991 active 1991
  559 unconstrained
found mpc.gencost on line 3694
 found end of gencost section on line 3955
read time: 0.03931689262390137
 creating ampl object ...
 reading modfile ...
 modfile read in time 0.0 AMPL presolve off
 solver set to knitro
 sets and parameters loaded
 saving processed data to all_data
 solving model ...

 ===============================================================
 ===============================================================
 case ../data/case1354pegase.m
 modfile ac.mod
 solver knitro
 objective 74069.36341388008
 active power generation 33930
 active power demand 730.5967000000006
 active power loss 10.096934138800489
 reactive power generation 33930
 reactive power demand 134.01440000000014
 reactive power loss 130.93570279048956
 solver runtime 2.685817003250122
 time so far 3.724580764770508
 writing casename, modfile, obj and runtime to summary_ac.log
 ===============================================================
 ===============================================================
 writing solution to ACsol_case1354pegase.txt
 done writing knitro solution to .txt file

 writing solution to ACsol_case1354pegase.sol
 done writing AC QCQP allvars solution to .sol file

 building solution dictionary for plotting...
starting log: Fri Aug 29 20:35:23 2025
running on: Remi

Version <Wed.Apr.3.114200.2024@cool1>
reading config file ac.conf
reading case file ../data/case1354pegase.m
reading case file thru lines
found mpc.version on line 64
found mpc.baseMVA on line 68
 baseMVA: 100.0
found mpc.bus on line 72
 slack bus: 4231
 Bus 640 ID 4231 is the reference bus
found end of bus section on line 1427
 sumloadPd 73059.67000000003 numPload 621
 sumloadQd 13401.439999999995
 1354 buses
found mpc.gen on line 1431
 found end of gen section on line 1692
 number of generators: 260 number of buses with gens: 260
 summaxPg: 128738.6 summaxQg: inf
found mpc.branch on line 1696
 found end of branch section on line 3688
 branchcount: 1991 active 1991
  559 unconstrained
found mpc.gencost on line 3694
 found end of gencost section on line 3955
read time: 0.04360246658325195
 creating ampl object ...
 reading modfile ...
 modfile read in time 0.0 AMPL presolve off
 solver set to knitro
 sets and parameters loaded
 saving processed data to all_data
 solving model ...

 ===============================================================
 ===============================================================
 case ../data/case1354pegase.m
 modfile ac.mod
 solver knitro
 objective 74069.36341388008
 active power generation 33930
 active power demand 730.5967000000006
 active power loss 10.096934138800489
 reactive power generation 33930
 reactive power demand 134.01440000000014
 reactive power loss 130.93570279048956
 solver runtime 2.7978811264038086
 time so far 3.955003261566162
 writing casename, modfile, obj and runtime to summary_ac.log
 ===============================================================
 ===============================================================
 writing solution to ACsol_case1354pegase.txt
 done writing knitro solution to .txt file

 writing solution to ACsol_case1354pegase.sol
 done writing AC QCQP allvars solution to .sol file

 building solution dictionary for plotting...
starting log: Fri Aug 29 20:38:48 2025
running on: Remi

Version <Wed.Apr.3.114200.2024@cool1>
reading config file ac.conf
reading case file ../data/case1354pegase.m
reading case file thru lines
found mpc.version on line 64
found mpc.baseMVA on line 68
 baseMVA: 100.0
found mpc.bus on line 72
 slack bus: 4231
 Bus 640 ID 4231 is the reference bus
found end of bus section on line 1427
 sumloadPd 73059.67000000003 numPload 621
 sumloadQd 13401.439999999995
 1354 buses
found mpc.gen on line 1431
 found end of gen section on line 1692
 number of generators: 260 number of buses with gens: 260
 summaxPg: 128738.6 summaxQg: inf
found mpc.branch on line 1696
 found end of branch section on line 3688
 branchcount: 1991 active 1991
  559 unconstrained
found mpc.gencost on line 3694
 found end of gencost section on line 3955
read time: 0.04064035415649414
 creating ampl object ...
 reading modfile ...
 modfile read in time 0.0005300045013427734 AMPL presolve off
 solver set to knitro
 sets and parameters loaded
 saving processed data to all_data
 solving model ...

 ===============================================================
 ===============================================================
 case ../data/case1354pegase.m
 modfile ac.mod
 solver knitro
 objective 74069.36341388008
 active power generation 33930
 active power demand 730.5967000000006
 active power loss 10.096934138800489
 reactive power generation 33930
 reactive power demand 134.01440000000014
 reactive power loss 130.93570279048956
 solver runtime 2.216000556945801
 time so far 3.7203640937805176
 writing casename, modfile, obj and runtime to summary_ac.log
 ===============================================================
 ===============================================================
 writing solution to ACsol_case1354pegase.txt
 done writing knitro solution to .txt file

 writing solution to ACsol_case1354pegase.sol
 done writing AC QCQP allvars solution to .sol file

 building solution dictionary for plotting...
starting log: Fri Aug 29 20:46:06 2025
running on: Remi

Version <Wed.Apr.3.114200.2024@cool1>
reading config file ac.conf
reading case file ../data/case1354pegase.m
reading case file thru lines
found mpc.version on line 64
found mpc.baseMVA on line 68
 baseMVA: 100.0
found mpc.bus on line 72
 slack bus: 4231
 Bus 640 ID 4231 is the reference bus
found end of bus section on line 1427
 sumloadPd 73059.67000000003 numPload 621
 sumloadQd 13401.439999999995
 1354 buses
found mpc.gen on line 1431
 found end of gen section on line 1692
 number of generators: 260 number of buses with gens: 260
 summaxPg: 128738.6 summaxQg: inf
found mpc.branch on line 1696
 found end of branch section on line 3688
 branchcount: 1991 active 1991
  559 unconstrained
found mpc.gencost on line 3694
 found end of gencost section on line 3955
read time: 0.036826133728027344
 creating ampl object ...
 reading modfile ...
 modfile read in time 0.0010154247283935547 AMPL presolve off
 solver set to knitro
 sets and parameters loaded
 saving processed data to all_data
 solving model ...

 ===============================================================
 ===============================================================
 case ../data/case1354pegase.m
 modfile ac.mod
 solver knitro
 objective 74069.36341388008
 active power generation 33930
 active power demand 730.5967000000006
 active power loss 10.096934138800489
 reactive power generation 33930
 reactive power demand 134.01440000000014
 reactive power loss 130.93570279048956
 solver runtime 2.3083338737487793
 time so far 3.7761070728302
 writing casename, modfile, obj and runtime to summary_ac.log
 ===============================================================
 ===============================================================
 writing solution to ACsol_case1354pegase.txt
 done writing knitro solution to .txt file

 writing solution to ACsol_case1354pegase.sol
 done writing AC QCQP allvars solution to .sol file

 building solution dictionary for plotting...
starting log: Fri Aug 29 20:49:21 2025
running on: Remi

Version <Wed.Apr.3.114200.2024@cool1>
reading config file ac.conf
reading case file ../data/case1354pegase.m
reading case file thru lines
found mpc.version on line 64
found mpc.baseMVA on line 68
 baseMVA: 100.0
found mpc.bus on line 72
 slack bus: 4231
 Bus 640 ID 4231 is the reference bus
found end of bus section on line 1427
 sumloadPd 73059.67000000003 numPload 621
 sumloadQd 13401.439999999995
 1354 buses
found mpc.gen on line 1431
 found end of gen section on line 1692
 number of generators: 260 number of buses with gens: 260
 summaxPg: 128738.6 summaxQg: inf
found mpc.branch on line 1696
 found end of branch section on line 3688
 branchcount: 1991 active 1991
  559 unconstrained
found mpc.gencost on line 3694
 found end of gencost section on line 3955
read time: 0.04660749435424805
 creating ampl object ...
 reading modfile ...
 modfile read in time 0.0010082721710205078 AMPL presolve off
 solver set to knitro
 sets and parameters loaded
 saving processed data to all_data
 solving model ...

 ===============================================================
 ===============================================================
 case ../data/case1354pegase.m
 modfile ac.mod
 solver knitro
 objective 74069.36341388008
 active power generation 33930
 active power demand 730.5967000000006
 active power loss 10.096934138800489
 reactive power generation 33930
 reactive power demand 134.01440000000014
 reactive power loss 130.93570279048956
 solver runtime 2.469539165496826
 time so far 3.6005523204803467
 writing casename, modfile, obj and runtime to summary_ac.log
 ===============================================================
 ===============================================================
 writing solution to ACsol_case1354pegase.txt
 done writing knitro solution to .txt file

 writing solution to ACsol_case1354pegase.sol
 done writing AC QCQP allvars solution to .sol file

 building solution dictionary for plotting...
starting log: Fri Aug 29 22:42:21 2025
running on: Remi

Version <Wed.Apr.3.114200.2024@cool1>
reading config file ac.conf
reading case file ../data/case14.m
reading case file thru lines
found mpc.version on line 16
found mpc.baseMVA on line 20
 baseMVA: 100.0
found mpc.bus on line 24
 slack bus: 1
 Bus 1 ID 1 is the reference bus
found end of bus section on line 39
 sumloadPd 258.99999999999994 numPload 11
 sumloadQd 73.5
 14 buses
found mpc.gen on line 43
 found end of gen section on line 49
 number of generators: 5 number of buses with gens: 5
 summaxPg: 772.4 summaxQg: 148.0
found mpc.branch on line 53
 found end of branch section on line 74
 branchcount: 20 active 20
  20 unconstrained
found mpc.gencost on line 80
 found end of gencost section on line 86
found mpc.bus_name on line 89
read time: 0.005178928375244141
 creating ampl object ...
 reading modfile ...
 modfile read in time 0.0 AMPL presolve off
 solver set to knitro
 sets and parameters loaded
 saving processed data to all_data
 solving model ...

 ===============================================================
 ===============================================================
 case ../data/case14.m
 modfile ac.mod
 solver knitro
 objective 8081.187606452443
 active power generation 15
 active power demand 2.59
 active power loss 0.09285959586503079
 reactive power generation 15
 reactive power demand 0.7350000000000001
 reactive power loss 0.1471025842105987
 solver runtime 0.376101016998291
 time so far 0.5195596218109131
 writing casename, modfile, obj and runtime to summary_ac.log
 ===============================================================
 ===============================================================
 writing solution to ACsol_case14.txt
 done writing knitro solution to .txt file

 writing solution to ACsol_case14.sol
 done writing AC QCQP allvars solution to .sol file

 building solution dictionary for plotting...
starting log: Fri Aug 29 22:43:13 2025
running on: Remi

Version <Wed.Apr.3.114200.2024@cool1>
reading config file ac.conf
reading case file ../data/case14.m
reading case file thru lines
found mpc.version on line 16
found mpc.baseMVA on line 20
 baseMVA: 100.0
found mpc.bus on line 24
 slack bus: 1
 Bus 1 ID 1 is the reference bus
found end of bus section on line 39
 sumloadPd 258.99999999999994 numPload 11
 sumloadQd 73.5
 14 buses
found mpc.gen on line 43
 found end of gen section on line 49
 number of generators: 5 number of buses with gens: 5
 summaxPg: 772.4 summaxQg: 148.0
found mpc.branch on line 53
 found end of branch section on line 74
 branchcount: 20 active 20
  20 unconstrained
found mpc.gencost on line 80
 found end of gencost section on line 86
found mpc.bus_name on line 89
read time: 0.005640506744384766
 creating ampl object ...
 reading modfile ...
 modfile read in time 0.0 AMPL presolve off
 solver set to knitro
 sets and parameters loaded
 saving processed data to all_data
 solving model ...

 ===============================================================
 ===============================================================
 case ../data/case14.m
 modfile ac.mod
 solver knitro
 objective 8081.187606452443
 active power generation 15
 active power demand 2.59
 active power loss 0.09285959586503079
 reactive power generation 15
 reactive power demand 0.7350000000000001
 reactive power loss 0.1471025842105987
 solver runtime 0.3812263011932373
 time so far 0.922842264175415
 writing casename, modfile, obj and runtime to summary_ac.log
 ===============================================================
 ===============================================================
 writing solution to ACsol_case14.txt
 done writing knitro solution to .txt file

 writing solution to ACsol_case14.sol
 done writing AC QCQP allvars solution to .sol file

 building solution dictionary for plotting...
 building solution dictionary for plotting...

closing log: Fri Aug 29 22:43:15 2025
starting log: Fri Aug 29 22:44:25 2025
running on: Remi

Version <Wed.Apr.3.114200.2024@cool1>
reading config file ac.conf
reading case file ../data/case1354pegase.m
reading case file thru lines
found mpc.version on line 64
found mpc.baseMVA on line 68
 baseMVA: 100.0
found mpc.bus on line 72
 slack bus: 4231
 Bus 640 ID 4231 is the reference bus
found end of bus section on line 1427
 sumloadPd 73059.67000000003 numPload 621
 sumloadQd 13401.439999999995
 1354 buses
found mpc.gen on line 1431
 found end of gen section on line 1692
 number of generators: 260 number of buses with gens: 260
 summaxPg: 128738.6 summaxQg: inf
found mpc.branch on line 1696
 found end of branch section on line 3688
 branchcount: 1991 active 1991
  559 unconstrained
found mpc.gencost on line 3694
 found end of gencost section on line 3955
read time: 0.03913259506225586
 creating ampl object ...
 reading modfile ...
 modfile read in time 0.0010018348693847656 AMPL presolve off
 solver set to knitro
 sets and parameters loaded
 saving processed data to all_data
 solving model ...

 ===============================================================
 ===============================================================
 case ../data/case1354pegase.m
 modfile ac.mod
 solver knitro
 objective 74069.36341388008
 active power generation 33930
 active power demand 730.5967000000006
 active power loss 10.096934138800489
 reactive power generation 33930
 reactive power demand 134.01440000000014
 reactive power loss 130.93570279048956
 solver runtime 2.33284592628479
 time so far 3.389854669570923
 writing casename, modfile, obj and runtime to summary_ac.log
 ===============================================================
 ===============================================================
 writing solution to ACsol_case1354pegase.txt
 done writing knitro solution to .txt file

 writing solution to ACsol_case1354pegase.sol
 done writing AC QCQP allvars solution to .sol file

 building solution dictionary for plotting...
starting log: Fri Aug 29 22:47:48 2025
running on: Remi

Version <Wed.Apr.3.114200.2024@cool1>
reading config file ac.conf
reading case file ../data/case1354pegase.m
reading case file thru lines
found mpc.version on line 64
found mpc.baseMVA on line 68
 baseMVA: 100.0
found mpc.bus on line 72
 slack bus: 4231
 Bus 640 ID 4231 is the reference bus
found end of bus section on line 1427
 sumloadPd 73059.67000000003 numPload 621
 sumloadQd 13401.439999999995
 1354 buses
found mpc.gen on line 1431
 found end of gen section on line 1692
 number of generators: 260 number of buses with gens: 260
 summaxPg: 128738.6 summaxQg: inf
found mpc.branch on line 1696
 found end of branch section on line 3688
 branchcount: 1991 active 1991
  559 unconstrained
found mpc.gencost on line 3694
 found end of gencost section on line 3955
read time: 0.03774404525756836
 creating ampl object ...
 reading modfile ...
 modfile read in time 0.0010106563568115234 AMPL presolve off
 solver set to knitro
 sets and parameters loaded
 saving processed data to all_data
 solving model ...

 ===============================================================
 ===============================================================
 case ../data/case1354pegase.m
 modfile ac.mod
 solver knitro
 objective 74069.36341388008
 active power generation 33930
 active power demand 730.5967000000006
 active power loss 10.096934138800489
 reactive power generation 33930
 reactive power demand 134.01440000000014
 reactive power loss 130.93570279048956
 solver runtime 2.2690515518188477
 time so far 3.74904465675354
 writing casename, modfile, obj and runtime to summary_ac.log
 ===============================================================
 ===============================================================
 writing solution to ACsol_case1354pegase.txt
 done writing knitro solution to .txt file

 writing solution to ACsol_case1354pegase.sol
 done writing AC QCQP allvars solution to .sol file

 building solution dictionary for plotting...
starting log: Fri Aug 29 22:48:38 2025
running on: Remi

Version <Wed.Apr.3.114200.2024@cool1>
reading config file ac.conf
reading case file ../data/case1354pegase.m
reading case file thru lines
found mpc.version on line 64
found mpc.baseMVA on line 68
 baseMVA: 100.0
found mpc.bus on line 72
 slack bus: 4231
 Bus 640 ID 4231 is the reference bus
found end of bus section on line 1427
 sumloadPd 73059.67000000003 numPload 621
 sumloadQd 13401.439999999995
 1354 buses
found mpc.gen on line 1431
 found end of gen section on line 1692
 number of generators: 260 number of buses with gens: 260
 summaxPg: 128738.6 summaxQg: inf
found mpc.branch on line 1696
 found end of branch section on line 3688
 branchcount: 1991 active 1991
  559 unconstrained
found mpc.gencost on line 3694
 found end of gencost section on line 3955
read time: 0.04056119918823242
 creating ampl object ...
 reading modfile ...
 modfile read in time 0.001001119613647461 AMPL presolve off
 solver set to knitro
 sets and parameters loaded
 saving processed data to all_data
 solving model ...

 ===============================================================
 ===============================================================
 case ../data/case1354pegase.m
 modfile ac.mod
 solver knitro
 objective 74069.36341388008
 active power generation 33930
 active power demand 730.5967000000006
 active power loss 10.096934138800489
 reactive power generation 33930
 reactive power demand 134.01440000000014
 reactive power loss 130.93570279048956
 solver runtime 2.3852787017822266
 time so far 3.6016159057617188
 writing casename, modfile, obj and runtime to summary_ac.log
 ===============================================================
 ===============================================================
 writing solution to ACsol_case1354pegase.txt
 done writing knitro solution to .txt file

 writing solution to ACsol_case1354pegase.sol
 done writing AC QCQP allvars solution to .sol file

 building solution dictionary for plotting...
starting log: Fri Aug 29 22:57:55 2025
running on: Remi

Version <Wed.Apr.3.114200.2024@cool1>
reading config file ac.conf
reading case file ../data/case1354pegase.m
reading case file thru lines
found mpc.version on line 64
found mpc.baseMVA on line 68
 baseMVA: 100.0
found mpc.bus on line 72
 slack bus: 4231
 Bus 640 ID 4231 is the reference bus
found end of bus section on line 1427
 sumloadPd 73059.67000000003 numPload 621
 sumloadQd 13401.439999999995
 1354 buses
found mpc.gen on line 1431
 found end of gen section on line 1692
 number of generators: 260 number of buses with gens: 260
 summaxPg: 128738.6 summaxQg: inf
found mpc.branch on line 1696
 found end of branch section on line 3688
 branchcount: 1991 active 1991
  559 unconstrained
found mpc.gencost on line 3694
 found end of gencost section on line 3955
read time: 0.04133152961730957
 creating ampl object ...
 reading modfile ...
 modfile read in time 0.0 AMPL presolve off
 solver set to knitro
 sets and parameters loaded
 saving processed data to all_data
 solving model ...

 ===============================================================
 ===============================================================
 case ../data/case1354pegase.m
 modfile ac.mod
 solver knitro
 objective 74069.36341388008
 active power generation 33930
 active power demand 730.5967000000006
 active power loss 10.096934138800489
 reactive power generation 33930
 reactive power demand 134.01440000000014
 reactive power loss 130.93570279048956
 solver runtime 2.2893571853637695
 time so far 3.8012619018554688
 writing casename, modfile, obj and runtime to summary_ac.log
 ===============================================================
 ===============================================================
 writing solution to ACsol_case1354pegase.txt
 done writing knitro solution to .txt file

 writing solution to ACsol_case1354pegase.sol
 done writing AC QCQP allvars solution to .sol file

 building solution dictionary for plotting...
starting log: Fri Aug 29 23:01:00 2025
running on: Remi

Version <Wed.Apr.3.114200.2024@cool1>
reading config file ac.conf
reading case file ../data/case1354pegase.m
reading case file thru lines
found mpc.version on line 64
found mpc.baseMVA on line 68
 baseMVA: 100.0
found mpc.bus on line 72
 slack bus: 4231
 Bus 640 ID 4231 is the reference bus
found end of bus section on line 1427
 sumloadPd 73059.67000000003 numPload 621
 sumloadQd 13401.439999999995
 1354 buses
found mpc.gen on line 1431
 found end of gen section on line 1692
 number of generators: 260 number of buses with gens: 260
 summaxPg: 128738.6 summaxQg: inf
found mpc.branch on line 1696
 found end of branch section on line 3688
 branchcount: 1991 active 1991
  559 unconstrained
found mpc.gencost on line 3694
 found end of gencost section on line 3955
read time: 0.06267428398132324
 creating ampl object ...
 reading modfile ...
 modfile read in time 0.0009992122650146484 AMPL presolve off
 solver set to knitro
 sets and parameters loaded
 saving processed data to all_data
 solving model ...

 ===============================================================
 ===============================================================
 case ../data/case1354pegase.m
 modfile ac.mod
 solver knitro
 objective 74069.36341388008
 active power generation 33930
 active power demand 730.5967000000006
 active power loss 10.096934138800489
 reactive power generation 33930
 reactive power demand 134.01440000000014
 reactive power loss 130.93570279048956
 solver runtime 2.381260395050049
 time so far 3.482836961746216
 writing casename, modfile, obj and runtime to summary_ac.log
 ===============================================================
 ===============================================================
 writing solution to ACsol_case1354pegase.txt
 done writing knitro solution to .txt file

 writing solution to ACsol_case1354pegase.sol
 done writing AC QCQP allvars solution to .sol file

 building solution dictionary for plotting...
starting log: Fri Aug 29 23:04:43 2025
running on: Remi

Version <Wed.Apr.3.114200.2024@cool1>
reading config file ac.conf
reading case file ../data/case1354pegase.m
reading case file thru lines
found mpc.version on line 64
found mpc.baseMVA on line 68
 baseMVA: 100.0
found mpc.bus on line 72
 slack bus: 4231
 Bus 640 ID 4231 is the reference bus
found end of bus section on line 1427
 sumloadPd 73059.67000000003 numPload 621
 sumloadQd 13401.439999999995
 1354 buses
found mpc.gen on line 1431
 found end of gen section on line 1692
 number of generators: 260 number of buses with gens: 260
 summaxPg: 128738.6 summaxQg: inf
found mpc.branch on line 1696
 found end of branch section on line 3688
 branchcount: 1991 active 1991
  559 unconstrained
found mpc.gencost on line 3694
 found end of gencost section on line 3955
read time: 0.05374574661254883
 creating ampl object ...
 reading modfile ...
 modfile read in time 0.012126445770263672 AMPL presolve off
 solver set to knitro
 sets and parameters loaded
 saving processed data to all_data
 solving model ...

 ===============================================================
 ===============================================================
 case ../data/case1354pegase.m
 modfile ac.mod
 solver knitro
 objective 74069.36341388008
 active power generation 33930
 active power demand 730.5967000000006
 active power loss 10.096934138800489
 reactive power generation 33930
 reactive power demand 134.01440000000014
 reactive power loss 130.93570279048956
 solver runtime 3.0654196739196777
 time so far 5.1949732303619385
 writing casename, modfile, obj and runtime to summary_ac.log
 ===============================================================
 ===============================================================
 writing solution to ACsol_case1354pegase.txt
 done writing knitro solution to .txt file

 writing solution to ACsol_case1354pegase.sol
 done writing AC QCQP allvars solution to .sol file

 building solution dictionary for plotting...
starting log: Fri Aug 29 23:08:08 2025
running on: Remi

Version <Wed.Apr.3.114200.2024@cool1>
reading config file ac.conf
reading case file ../data/case1354pegase.m
reading case file thru lines
found mpc.version on line 64
found mpc.baseMVA on line 68
 baseMVA: 100.0
found mpc.bus on line 72
 slack bus: 4231
 Bus 640 ID 4231 is the reference bus
found end of bus section on line 1427
 sumloadPd 73059.67000000003 numPload 621
 sumloadQd 13401.439999999995
 1354 buses
found mpc.gen on line 1431
 found end of gen section on line 1692
 number of generators: 260 number of buses with gens: 260
 summaxPg: 128738.6 summaxQg: inf
found mpc.branch on line 1696
 found end of branch section on line 3688
 branchcount: 1991 active 1991
  559 unconstrained
found mpc.gencost on line 3694
 found end of gencost section on line 3955
read time: 0.04332304000854492
 creating ampl object ...
 reading modfile ...
 modfile read in time 0.0005142688751220703 AMPL presolve off
 solver set to knitro
 sets and parameters loaded
 saving processed data to all_data
 solving model ...

 ===============================================================
 ===============================================================
 case ../data/case1354pegase.m
 modfile ac.mod
 solver knitro
 objective 74069.36341388008
 active power generation 33930
 active power demand 730.5967000000006
 active power loss 10.096934138800489
 reactive power generation 33930
 reactive power demand 134.01440000000014
 reactive power loss 130.93570279048956
 solver runtime 2.364912748336792
 time so far 3.4710533618927
 writing casename, modfile, obj and runtime to summary_ac.log
 ===============================================================
 ===============================================================
 writing solution to ACsol_case1354pegase.txt
 done writing knitro solution to .txt file

 writing solution to ACsol_case1354pegase.sol
 done writing AC QCQP allvars solution to .sol file

 building solution dictionary for plotting...
starting log: Fri Aug 29 23:18:01 2025
running on: Remi

Version <Wed.Apr.3.114200.2024@cool1>
reading config file ac.conf
reading case file ../data/case1354pegase.m
reading case file thru lines
found mpc.version on line 64
found mpc.baseMVA on line 68
 baseMVA: 100.0
found mpc.bus on line 72
 slack bus: 4231
 Bus 640 ID 4231 is the reference bus
found end of bus section on line 1427
 sumloadPd 73059.67000000003 numPload 621
 sumloadQd 13401.439999999995
 1354 buses
found mpc.gen on line 1431
 found end of gen section on line 1692
 number of generators: 260 number of buses with gens: 260
 summaxPg: 128738.6 summaxQg: inf
found mpc.branch on line 1696
 found end of branch section on line 3688
 branchcount: 1991 active 1991
[...]
 Bus 640 ID 4231 is the reference bus
found end of bus section on line 1427
 sumloadPd 73059.67000000003 numPload 621
 sumloadQd 13401.439999999995
 1354 buses
found mpc.gen on line 1431
 found end of gen section on line 1692
 number of generators: 260 number of buses with gens: 260
 summaxPg: 128738.6 summaxQg: inf
found mpc.branch on line 1696
 found end of branch section on line 3688
 branchcount: 1991 active 1991
  559 unconstrained
found mpc.gencost on line 3694
 found end of gencost section on line 3955
read time: 0.03932023048400879
 creating ampl object ...
 reading modfile ...
 modfile read in time 0.0010013580322265625 AMPL presolve off
 solver set to knitro
 sets and parameters loaded
 saving processed data to all_data
 solving model ...

 ===============================================================
 ===============================================================
 case ../data/case1354pegase.m
 modfile ac.mod
 solver knitro
 objective 74069.36341388008
 active power generation 33930
 active power demand 730.5967000000006
 active power loss 10.096934138800489
 reactive power generation 33930
 reactive power demand 134.01440000000014
 reactive power loss 130.93570279048956
 solver runtime 2.265026807785034
 time so far 3.708935260772705
 writing casename, modfile, obj and runtime to summary_ac.log
 ===============================================================
 ===============================================================
 writing solution to ACsol_case1354pegase.txt
 done writing knitro solution to .txt file

 writing solution to ACsol_case1354pegase.sol
 done writing AC QCQP allvars solution to .sol file

 building solution dictionary for plotting...
starting log: Sat Aug 30 01:48:05 2025
running on: Remi

Version <Wed.Apr.3.114200.2024@cool1>
reading config file ac.conf
reading case file ../data/case1354pegase.m
reading case file thru lines
found mpc.version on line 64
found mpc.baseMVA on line 68
 baseMVA: 100.0
found mpc.bus on line 72
 slack bus: 4231
 Bus 640 ID 4231 is the reference bus
found end of bus section on line 1427
 sumloadPd 73059.67000000003 numPload 621
 sumloadQd 13401.439999999995
 1354 buses
found mpc.gen on line 1431
 found end of gen section on line 1692
 number of generators: 260 number of buses with gens: 260
 summaxPg: 128738.6 summaxQg: inf
found mpc.branch on line 1696
 found end of branch section on line 3688
 branchcount: 1991 active 1991
  559 unconstrained
found mpc.gencost on line 3694
 found end of gencost section on line 3955
read time: 0.055753469467163086
 creating ampl object ...
 reading modfile ...
 modfile read in time 0.0010063648223876953 AMPL presolve off
 solver set to knitro
 sets and parameters loaded
 saving processed data to all_data
 solving model ...

 ===============================================================
 ===============================================================
 case ../data/case1354pegase.m
 modfile ac.mod
 solver knitro
 objective 74069.36341388008
 active power generation 33930
 active power demand 730.5967000000006
 active power loss 10.096934138800489
 reactive power generation 33930
 reactive power demand 134.01440000000014
 reactive power loss 130.93570279048956
 solver runtime 2.325880527496338
 time so far 3.4132468700408936
 writing casename, modfile, obj and runtime to summary_ac.log
 ===============================================================
 ===============================================================
 writing solution to ACsol_case1354pegase.txt
 done writing knitro solution to .txt file

 writing solution to ACsol_case1354pegase.sol
 done writing AC QCQP allvars solution to .sol file

 building solution dictionary for plotting...
starting log: Sat Aug 30 01:52:31 2025
running on: Remi

Version <Wed.Apr.3.114200.2024@cool1>
reading config file ac.conf
reading case file ../data/case1354pegase.m
reading case file thru lines
found mpc.version on line 64
found mpc.baseMVA on line 68
 baseMVA: 100.0
found mpc.bus on line 72
 slack bus: 4231
 Bus 640 ID 4231 is the reference bus
found end of bus section on line 1427
 sumloadPd 73059.67000000003 numPload 621
 sumloadQd 13401.439999999995
 1354 buses
found mpc.gen on line 1431
 found end of gen section on line 1692
 number of generators: 260 number of buses with gens: 260
 summaxPg: 128738.6 summaxQg: inf
found mpc.branch on line 1696
 found end of branch section on line 3688
 branchcount: 1991 active 1991
  559 unconstrained
found mpc.gencost on line 3694
 found end of gencost section on line 3955
read time: 0.04120516777038574
 creating ampl object ...
 reading modfile ...
 modfile read in time 0.0005197525024414062 AMPL presolve off
 solver set to knitro
 sets and parameters loaded
 saving processed data to all_data
 solving model ...

 ===============================================================
 ===============================================================
 case ../data/case1354pegase.m
 modfile ac.mod
 solver knitro
 objective 74069.36341388008
 active power generation 33930
 active power demand 730.5967000000006
 active power loss 10.096934138800489
 reactive power generation 33930
 reactive power demand 134.01440000000014
 reactive power loss 130.93570279048956
 solver runtime 2.4069252014160156
 time so far 3.993396520614624
 writing casename, modfile, obj and runtime to summary_ac.log
 ===============================================================
 ===============================================================
 writing solution to ACsol_case1354pegase.txt
 done writing knitro solution to .txt file

 writing solution to ACsol_case1354pegase.sol
 done writing AC QCQP allvars solution to .sol file

 building solution dictionary for plotting...
starting log: Sat Aug 30 02:05:33 2025
running on: Remi

Version <Wed.Apr.3.114200.2024@cool1>
reading config file ac.conf
reading case file ../data/case1354pegase.m
reading case file thru lines
found mpc.version on line 64
found mpc.baseMVA on line 68
 baseMVA: 100.0
found mpc.bus on line 72
 slack bus: 4231
 Bus 640 ID 4231 is the reference bus
found end of bus section on line 1427
 sumloadPd 73059.67000000003 numPload 621
 sumloadQd 13401.439999999995
 1354 buses
found mpc.gen on line 1431
 found end of gen section on line 1692
 number of generators: 260 number of buses with gens: 260
 summaxPg: 128738.6 summaxQg: inf
found mpc.branch on line 1696
 found end of branch section on line 3688
 branchcount: 1991 active 1991
  559 unconstrained
found mpc.gencost on line 3694
 found end of gencost section on line 3955
read time: 0.03900265693664551
 creating ampl object ...
 reading modfile ...
 modfile read in time 0.0010170936584472656 AMPL presolve off
 solver set to knitro
 sets and parameters loaded
 saving processed data to all_data
 solving model ...

 ===============================================================
 ===============================================================
 case ../data/case1354pegase.m
 modfile ac.mod
 solver knitro
 objective 74069.36341388008
 active power generation 33930
 active power demand 730.5967000000006
 active power loss 10.096934138800489
 reactive power generation 33930
 reactive power demand 134.01440000000014
 reactive power loss 130.93570279048956
 solver runtime 2.250565767288208
 time so far 3.7826573848724365
 writing casename, modfile, obj and runtime to summary_ac.log
 ===============================================================
 ===============================================================
 writing solution to ACsol_case1354pegase.txt
 done writing knitro solution to .txt file

 writing solution to ACsol_case1354pegase.sol
 done writing AC QCQP allvars solution to .sol file

 building solution dictionary for plotting...
starting log: Sat Aug 30 02:09:36 2025
running on: Remi

Version <Wed.Apr.3.114200.2024@cool1>
reading config file ac.conf
reading case file ../data/case1354pegase.m
reading case file thru lines
found mpc.version on line 64
found mpc.baseMVA on line 68
 baseMVA: 100.0
found mpc.bus on line 72
 slack bus: 4231
 Bus 640 ID 4231 is the reference bus
found end of bus section on line 1427
 sumloadPd 73059.67000000003 numPload 621
 sumloadQd 13401.439999999995
 1354 buses
found mpc.gen on line 1431
 found end of gen section on line 1692
 number of generators: 260 number of buses with gens: 260
 summaxPg: 128738.6 summaxQg: inf
found mpc.branch on line 1696
 found end of branch section on line 3688
 branchcount: 1991 active 1991
  559 unconstrained
found mpc.gencost on line 3694
 found end of gencost section on line 3955
read time: 0.04172015190124512
 creating ampl object ...
 reading modfile ...
 modfile read in time 0.0 AMPL presolve off
 solver set to knitro
 sets and parameters loaded
 saving processed data to all_data
 solving model ...

 ===============================================================
 ===============================================================
 case ../data/case1354pegase.m
 modfile ac.mod
 solver knitro
 objective 74069.36341388008
 active power generation 33930
 active power demand 730.5967000000006
 active power loss 10.096934138800489
 reactive power generation 33930
 reactive power demand 134.01440000000014
 reactive power loss 130.93570279048956
 solver runtime 2.5355944633483887
 time so far 3.9656660556793213
 writing casename, modfile, obj and runtime to summary_ac.log
 ===============================================================
 ===============================================================
 writing solution to ACsol_case1354pegase.txt
 done writing knitro solution to .txt file

 writing solution to ACsol_case1354pegase.sol
 done writing AC QCQP allvars solution to .sol file

 building solution dictionary for plotting...
 building solution dictionary for plotting...

closing log: Sat Aug 30 02:09:45 2025
starting log: Sat Aug 30 02:12:24 2025
running on: Remi

Version <Wed.Apr.3.114200.2024@cool1>
reading config file ac.conf
reading case file ../data/case1354pegase.m
reading case file thru lines
found mpc.version on line 64
found mpc.baseMVA on line 68
 baseMVA: 100.0
found mpc.bus on line 72
 slack bus: 4231
 Bus 640 ID 4231 is the reference bus
found end of bus section on line 1427
 sumloadPd 73059.67000000003 numPload 621
 sumloadQd 13401.439999999995
 1354 buses
found mpc.gen on line 1431
 found end of gen section on line 1692
 number of generators: 260 number of buses with gens: 260
 summaxPg: 128738.6 summaxQg: inf
found mpc.branch on line 1696
 found end of branch section on line 3688
 branchcount: 1991 active 1991
  559 unconstrained
found mpc.gencost on line 3694
 found end of gencost section on line 3955
read time: 0.05050945281982422
 creating ampl object ...
 reading modfile ...
 modfile read in time 0.0005044937133789062 AMPL presolve off
 solver set to knitro
 sets and parameters loaded
 saving processed data to all_data
 solving model ...

 ===============================================================
 ===============================================================
 case ../data/case1354pegase.m
 modfile ac.mod
 solver knitro
 objective 74069.36341388008
 active power generation 33930
 active power demand 730.5967000000006
 active power loss 10.096934138800489
 reactive power generation 33930
 reactive power demand 134.01440000000014
 reactive power loss 130.93570279048956
 solver runtime 2.545584201812744
 time so far 3.620831251144409
 writing casename, modfile, obj and runtime to summary_ac.log
 ===============================================================
 ===============================================================
 writing solution to ACsol_case1354pegase.txt
 done writing knitro solution to .txt file

 writing solution to ACsol_case1354pegase.sol
 done writing AC QCQP allvars solution to .sol file

 building solution dictionary for plotting...
starting log: Sat Aug 30 02:14:42 2025
running on: Remi

Version <Wed.Apr.3.114200.2024@cool1>
reading config file ac.conf
reading case file ../data/case1354pegase.m
reading case file thru lines
found mpc.version on line 64
found mpc.baseMVA on line 68
 baseMVA: 100.0
found mpc.bus on line 72
 slack bus: 4231
 Bus 640 ID 4231 is the reference bus
found end of bus section on line 1427
 sumloadPd 73059.67000000003 numPload 621
 sumloadQd 13401.439999999995
 1354 buses
found mpc.gen on line 1431
 found end of gen section on line 1692
 number of generators: 260 number of buses with gens: 260
 summaxPg: 128738.6 summaxQg: inf
found mpc.branch on line 1696
 found end of branch section on line 3688
 branchcount: 1991 active 1991
  559 unconstrained
found mpc.gencost on line 3694
 found end of gencost section on line 3955
read time: 0.04197192192077637
 creating ampl object ...
 reading modfile ...
 modfile read in time 0.0 AMPL presolve off
 solver set to knitro
 sets and parameters loaded
 saving processed data to all_data
 solving model ...

 ===============================================================
 ===============================================================
 case ../data/case1354pegase.m
 modfile ac.mod
 solver knitro
 objective 74069.36341388008
 active power generation 33930
 active power demand 730.5967000000006
 active power loss 10.096934138800489
 reactive power generation 33930
 reactive power demand 134.01440000000014
 reactive power loss 130.93570279048956
 solver runtime 2.522108554840088
 time so far 4.038599729537964
 writing casename, modfile, obj and runtime to summary_ac.log
 ===============================================================
 ===============================================================
 writing solution to ACsol_case1354pegase.txt
 done writing knitro solution to .txt file

 writing solution to ACsol_case1354pegase.sol
 done writing AC QCQP allvars solution to .sol file

 building solution dictionary for plotting...
 building solution dictionary for plotting...

closing log: Sat Aug 30 02:14:50 2025
starting log: Sat Aug 30 02:29:05 2025
running on: Remi

Version <Wed.Apr.3.114200.2024@cool1>
reading config file ac.conf
reading case file ../data/case1354pegase.m
reading case file thru lines
found mpc.version on line 64
found mpc.baseMVA on line 68
 baseMVA: 100.0
found mpc.bus on line 72
 slack bus: 4231
 Bus 640 ID 4231 is the reference bus
found end of bus section on line 1427
 sumloadPd 73059.67000000003 numPload 621
 sumloadQd 13401.439999999995
 1354 buses
found mpc.gen on line 1431
 found end of gen section on line 1692
 number of generators: 260 number of buses with gens: 260
 summaxPg: 128738.6 summaxQg: inf
found mpc.branch on line 1696
 found end of branch section on line 3688
 branchcount: 1991 active 1991
  559 unconstrained
found mpc.gencost on line 3694
 found end of gencost section on line 3955
read time: 0.051903724670410156
 creating ampl object ...
 reading modfile ...
 modfile read in time 0.0011534690856933594 AMPL presolve off
 solver set to knitro
 sets and parameters loaded
 saving processed data to all_data
 solving model ...

 ===============================================================
 ===============================================================
 case ../data/case1354pegase.m
 modfile ac.mod
 solver knitro
 objective 74069.36341388008
 active power generation 33930
 active power demand 730.5967000000006
 active power loss 10.096934138800489
 reactive power generation 33930
 reactive power demand 134.01440000000014
 reactive power loss 130.93570279048956
 solver runtime 2.4801769256591797
 time so far 4.171899318695068
 writing casename, modfile, obj and runtime to summary_ac.log
 ===============================================================
 ===============================================================
 writing solution to ACsol_case1354pegase.txt
 done writing knitro solution to .txt file

 writing solution to ACsol_case1354pegase.sol
 done writing AC QCQP allvars solution to .sol file

 building solution dictionary for plotting...
starting log: Sat Aug 30 02:29:59 2025
running on: Remi

Version <Wed.Apr.3.114200.2024@cool1>
reading config file ac.conf
reading case file ../data/case1354pegase.m
reading case file thru lines
found mpc.version on line 64
found mpc.baseMVA on line 68
 baseMVA: 100.0
found mpc.bus on line 72
 slack bus: 4231
 Bus 640 ID 4231 is the reference bus
found end of bus section on line 1427
 sumloadPd 73059.67000000003 numPload 621
 sumloadQd 13401.439999999995
 1354 buses
found mpc.gen on line 1431
 found end of gen section on line 1692
 number of generators: 260 number of buses with gens: 260
 summaxPg: 128738.6 summaxQg: inf
found mpc.branch on line 1696
 found end of branch section on line 3688
 branchcount: 1991 active 1991
  559 unconstrained
found mpc.gencost on line 3694
 found end of gencost section on line 3955
read time: 0.05799365043640137
 creating ampl object ...
 reading modfile ...
 modfile read in time 0.0015077590942382812 AMPL presolve off
 solver set to knitro
 sets and parameters loaded
 saving processed data to all_data
 solving model ...

 ===============================================================
 ===============================================================
 case ../data/case1354pegase.m
 modfile ac.mod
 solver knitro
 objective 74069.36341388008
 active power generation 33930
 active power demand 730.5967000000006
 active power loss 10.096934138800489
 reactive power generation 33930
 reactive power demand 134.01440000000014
 reactive power loss 130.93570279048956
 solver runtime 2.4773168563842773
 time so far 3.623121976852417
 writing casename, modfile, obj and runtime to summary_ac.log
 ===============================================================
 ===============================================================
 writing solution to ACsol_case1354pegase.txt
 done writing knitro solution to .txt file

 writing solution to ACsol_case1354pegase.sol
 done writing AC QCQP allvars solution to .sol file

 building solution dictionary for plotting...
starting log: Sat Aug 30 02:35:14 2025
running on: Remi

Version <Wed.Apr.3.114200.2024@cool1>
reading config file ac.conf
reading case file ../data/case1354pegase.m
reading case file thru lines
found mpc.version on line 64
found mpc.baseMVA on line 68
 baseMVA: 100.0
found mpc.bus on line 72
 slack bus: 4231
 Bus 640 ID 4231 is the reference bus
found end of bus section on line 1427
 sumloadPd 73059.67000000003 numPload 621
 sumloadQd 13401.439999999995
 1354 buses
found mpc.gen on line 1431
 found end of gen section on line 1692
 number of generators: 260 number of buses with gens: 260
 summaxPg: 128738.6 summaxQg: inf
found mpc.branch on line 1696
 found end of branch section on line 3688
 branchcount: 1991 active 1991
  559 unconstrained
found mpc.gencost on line 3694
 found end of gencost section on line 3955
read time: 0.04723834991455078
 creating ampl object ...
 reading modfile ...
 modfile read in time 0.0010111331939697266 AMPL presolve off
 solver set to knitro
 sets and parameters loaded
 saving processed data to all_data
 solving model ...

 ===============================================================
 ===============================================================
 case ../data/case1354pegase.m
 modfile ac.mod
 solver knitro
 objective 74069.36341388008
 active power generation 33930
 active power demand 730.5967000000006
 active power loss 10.096934138800489
 reactive power generation 33930
 reactive power demand 134.01440000000014
 reactive power loss 130.93570279048956
 solver runtime 2.4032516479492188
 time so far 3.983671188354492
 writing casename, modfile, obj and runtime to summary_ac.log
 ===============================================================
 ===============================================================
 writing solution to ACsol_case1354pegase.txt
 done writing knitro solution to .txt file

 writing solution to ACsol_case1354pegase.sol
 done writing AC QCQP allvars solution to .sol file

 building solution dictionary for plotting...
 building solution dictionary for plotting...

closing log: Sat Aug 30 02:35:39 2025
